Version 4
SHEET 1 880 680
WIRE -160 16 -224 16
WIRE 288 48 112 48
WIRE 448 48 368 48
WIRE -224 80 -224 16
WIRE 32 80 -16 80
WIRE 112 80 112 48
WIRE -16 96 -16 80
WIRE 112 144 112 80
WIRE 192 144 112 144
WIRE 448 160 448 48
WIRE 448 160 256 160
WIRE 512 160 448 160
WIRE -224 176 -224 160
WIRE -160 176 -224 176
WIRE -32 176 -96 176
WIRE 96 176 48 176
WIRE 144 176 96 176
WIRE 192 176 144 176
WIRE -224 192 -224 176
WIRE -160 192 -160 176
WIRE 96 208 96 176
WIRE 400 272 320 272
WIRE 448 272 448 240
WIRE 448 272 400 272
WIRE 144 288 144 176
WIRE 256 288 144 288
WIRE 320 288 320 272
WIRE -224 304 -224 272
WIRE -192 304 -224 304
WIRE -32 352 -32 176
WIRE 160 352 -32 352
WIRE 320 352 320 288
WIRE 320 352 224 352
FLAG 224 128 +vcc
FLAG 224 192 -vcc
FLAG 400 336 0
FLAG -16 96 0
FLAG 96 288 0
FLAG -96 256 0
FLAG 512 160 Vo
FLAG -160 192 0
FLAG -160 16 +vcc
FLAG -192 304 -vcc
SYMBOL res 128 64 R90
WINDOW 0 0 56 VBottom 2
WINDOW 3 32 56 VTop 2
SYMATTR InstName Ra1
SYMBOL res 384 32 R90
WINDOW 0 0 56 VBottom 2
WINDOW 3 32 56 VTop 2
SYMATTR InstName Rb
SYMBOL res 464 256 R180
WINDOW 0 36 76 Left 2
WINDOW 3 36 40 Left 2
SYMATTR InstName R1
SYMBOL res 112 304 R180
WINDOW 0 36 76 Left 2
WINDOW 3 36 40 Left 2
SYMATTR InstName R41
SYMBOL res -48 192 R270
WINDOW 0 32 56 VTop 2
WINDOW 3 0 56 VBottom 2
SYMATTR InstName R42
SYMBOL cap 320 272 R90
WINDOW 0 0 32 VBottom 2
WINDOW 3 32 32 VTop 2
SYMATTR InstName C3
SYMBOL cap 416 336 R180
WINDOW 0 24 56 Left 2
WINDOW 3 24 8 Left 2
SYMATTR InstName C21
SYMBOL cap 160 368 R270
WINDOW 0 32 32 VTop 2
WINDOW 3 0 32 VBottom 2
SYMATTR InstName C22
SYMBOL Opamps\\opamp2 224 96 R0
SYMATTR InstName U1
SYMATTR Value TL084
SYMBOL voltage -96 160 R0
SYMATTR InstName V1
SYMATTR Value ac 1
SYMBOL voltage -224 64 R0
SYMATTR InstName V2
SYMATTR Value 15
SYMBOL voltage -224 176 R0
SYMATTR InstName V3
SYMATTR Value 15
TEXT -88 400 Left 2 !.inc TL084.MOD
TEXT -216 368 Left 2 !.ac dec 1000 1k 10Meg
